*KEYWORD i10=y
*TITLE                                                                          
ASTM_E8                                                                         
$#
$#$$$$$$$$$$$$$$$$$$$$$$$$$$$$$$$$$$$$$$$$$$$$$$$$$$$
$#		Writing Control Cards		
$#$$$$$$$$$$$$$$$$$$$$$$$$$$$$$$$$$$$$$$$$$$$$$$$$$$$
$#
$#
$#$$$$$$$$$$$$$$$$$$$$$$$$$$$$$$$$$$$$$$$$$$$$$$$$$$$
$#		Writing Databases		
$#$$$$$$$$$$$$$$$$$$$$$$$$$$$$$$$$$$$$$$$$$$$$$$$$$$$
$#
$#
$#$$$$$$$$$$$$$$$$$$$$$$$$$$$$$$$$$$$$$$$$$$$$$$$$$$$
$#		Writing *DEFINE_option cards		
$#$$$$$$$$$$$$$$$$$$$$$$$$$$$$$$$$$$$$$$$$$$$$$$$$$$$
$#
$#
$#$$$$$$$$$$$$$$$$$$$$$$$$$$$$$$$$$$$$$$$$$$$$$$$$$$$
$#		Writing Materials		
$#$$$$$$$$$$$$$$$$$$$$$$$$$$$$$$$$$$$$$$$$$$$$$$$$$$$
$#
*MAT_ELASTIC                                                                    
$      MID        RO         E        PR        DA        DB         K
         1         0         0         0         0         0         0
$#
$#$$$$$$$$$$$$$$$$$$$$$$$$$$$$$$$$$$$$$$$$$$$$$$$$$$$
$#		Writing Sections		
$#$$$$$$$$$$$$$$$$$$$$$$$$$$$$$$$$$$$$$$$$$$$$$$$$$$$
$#
*SECTION_SOLID                                                                  
$       id   elformu       aet
        23         1         1
*SECTION_SOLID                                                                  
$       id   elformu       aet
        25         1         1
*SECTION_SOLID                                                                  
$       id   elformu       aet
        26         1         1
*SECTION_SOLID                                                                  
$       id   elformu       aet
        27         1         1
*SECTION_SOLID                                                                  
$       id   elformu       aet
        28         1         1
$#
$#$$$$$$$$$$$$$$$$$$$$$$$$$$$$$$$$$$$$$$$$$$$$$$$$$$$
$#		Writing Parts		
$#$$$$$$$$$$$$$$$$$$$$$$$$$$$$$$$$$$$$$$$$$$$$$$$$$$$
$#
*PART                                                                           
$name
ASTM_E8_SPECIMEN__GL_50MM_                                            
$       id     secid       mid     eosid      hgid      grav    adpopt      tmid
        20        23         1         0         0         0         0         0
*PART                                                                           
$name
UPPER_GRIP__LEFT_                                                     
$       id     secid       mid     eosid      hgid      grav    adpopt      tmid
        22        25         1         0         0         0         0         0
*PART                                                                           
$name
LOWER_GRIP__LEFT_                                                     
$       id     secid       mid     eosid      hgid      grav    adpopt      tmid
        23        26         1         0         0         0         0         0
*PART                                                                           
$name
UPPER_GRIP__RIGHT_                                                    
$       id     secid       mid     eosid      hgid      grav    adpopt      tmid
        24        27         1         0         0         0         0         0
*PART                                                                           
$name
LOWER_GRIP__RIGHT_                                                    
$       id     secid       mid     eosid      hgid      grav    adpopt      tmid
        25        28         1         0         0         0         0         0
$#
$#$$$$$$$$$$$$$$$$$$$$$$$$$$$$$$$$$$$$$$$$$$$$$$$$$$$
$#		Writing Nodes		
$#$$$$$$$$$$$$$$$$$$$$$$$$$$$$$$$$$$$$$$$$$$$$$$$$$$$
$#
*NODE %
$     Node               x               y               z      tc      rc
         1      -50.000001              15               0       0       0
         2             -50              13               0       0       0
         3      -51.000001              15               0       0       0
         4      -51.000001              13               0       0       0
         5             -50              15     -0.99988276       0       0
         6      -49.999999              13     -0.99988278       0       0
         7      -51.000001              15     -0.99988284       0       0
         8             -51              13     -0.99988286       0       0
         9             -50              15      -1.9997677       0       0
        10      -49.999999              13      -1.9997678       0       0
        11      -51.000001              15      -1.9997679       0       0
        12             -51              13      -1.9997679       0       0
        13             -50              15      -2.9996559       0       0
        14      -49.999999              13      -2.9996559       0       0
        15      -51.000001              15      -2.9996561       0       0
        16             -51              13      -2.9996562       0       0
        17             -50              15      -3.9995507       0       0
        18      -49.999999              13      -3.9995508       0       0
        19      -51.000001              15       -3.999551       0       0
        20      -51.000001              13       -3.999551       0       0
$ ... 118216 like lines cut
$#
$#$$$$$$$$$$$$$$$$$$$$$$$$$$$$$$$$$$$$$$$$$$$$$$$$$$$
$#		Writing Elements		
$#$$$$$$$$$$$$$$$$$$$$$$$$$$$$$$$$$$$$$$$$$$$$$$$$$$$
$#
*ELEMENT_SOLID
         1        23
         1         2         4         3         5         6         8         7
         2        23
         5         6         8         7         9        10        12        11
         3        23
         9        10        12        11        13        14        16        15
         4        23
        13        14        16        15        17        18        20        19
         5        23
        17        18        20        19        21        22        24        23
         6        23
        21        22        24        23        25        26        28        27
         7        23
        25        26        28        27        29        30        32        31
         8        23
        29        30        32        31        33        34        36        35
         9        23
        33        34        36        35        37        38        40        39
        10        23
        37        38        40        39        41        42        44        43
$ ... 204220 like lines cut
$#
$#$$$$$$$$$$$$$$$$$$$$$$$$$$$$$$$$$$$$$$$$$$$$$$$$$$$
$#		Writing Sets		
$#$$$$$$$$$$$$$$$$$$$$$$$$$$$$$$$$$$$$$$$$$$$$$$$$$$$
$#
*SET_NODE_LIST_TITLE                                                            
SPECIMEN_BOTTOM_CONTACT
         1
    101491    101492    101493    101494    101495    101496    101497    101498
    101499    101500    101501    101502    101503    101504    101505    101506
    101507    101508    101509    101510    101511    101512    101513    101514
    101515    101516    101517    101518    101519    101520    101521    101522
    101523    101524    101525    101526    101527    101528    101529    101530
    101531    101532    101533    101534    101535    101536    101537    101538
    101539    101540    101541    101542    101543    101544    101545    101546
    101547    101548    101549    101550    101551    101552    101553    101554
    101555    101556    101557    101558    101559    101560    101561    101562
    101563    101564    101565    101566    101567    101568    101569    101570
    101571    101572    101573    101574    101575    101576    101577    101578
    101579    101580    101581    101582    101583    101584    101585    101586
    101587    101588    101589    101590    101591    101592    101746    101747
    101748    101749    101750    101751    101752    101753    101754    101755
    101756    101757    101758    101759    101760    101761    101762    101763
    101764    101765    101766    101767    101768    101769    101770    101771
    101772    101773    101774    101775    101776    101777    101778    101779
    101780    101781    101782    101783    101784    101785    101786    101787
    101788    101789    101790    101791    101792    101793    101794    101795
$ ... 514 like lines cut
*SET_NODE_LIST_TITLE                                                            
SPECIMEN_TOP_CONTACT
         2
    101185    101186    101189    101190    101193    101194    101197    101198
    101201    101202    101205    101206    101209    101210    101213    101214
    101217    101218    101221    101222    101225    101226    101229    101230
    101233    101234    101237    101238    101241    101242    101245    101246
    101249    101250    101253    101254    101257    101258    101261    101262
    101265    101266    101269    101270    101273    101274    101277    101278
    101281    101282    101285    101286    101289    101290    101293    101294
    101297    101298    101301    101302    101305    101306    101309    101310
    101313    101314    101317    101318    101321    101322    101325    101326
    101329    101330    101333    101334    101337    101338    101341    101342
    101345    101346    101349    101350    101353    101354    101357    101358
    101361    101362    101365    101366    101369    101370    101373    101374
    101377    101378    101381    101382    101385    101386    101593    101595
    101597    101599    101601    101603    101605    101607    101609    101611
    101613    101615    101617    101619    101621    101623    101625    101627
    101629    101631    101633    101635    101637    101639    101641    101643
    101645    101647    101649    101651    101653    101655    101657    101659
    101661    101663    101665    101667    101669    101671    101673    101675
    101677    101679    101681    101683    101685    101687    101689    101691
$ ... 514 like lines cut
*SET_NODE_LIST_TITLE                                                            
SPECIMEN_LEFTEND
         3
    101185    101186    101187    101188    101389    101390    101491    101492
    101593    101594    101695    101746    101797    101798    101899    101950
    102001    102002    102103    102154    102205    102206    102307    102358
    102409    102410    102511    102562    102613    102614    102715    102766
    102817    102818    102919    102970    103021    103022    103123    103174
    103225    103226    103327    103378    103429    103430    103531    103582
    103633    103634    103735    103786    103837    103838    103939    103990
    104041    104042    104143    104194    104245    104246    104347    104398
    104449    104450    104551    104602    104653    104654    104755    104806
    104857    104858    104959    105010    105061    105062    105163    105214
    105265    105266    105367    105418
*SET_NODE_LIST_TITLE                                                            
SPECIMEN_GAUGESECTION
         4
    101185    101187    101189    101191    101193    101195    101197    101199
    101201    101203    101205    101207    101209    101211    101213    101215
    101217    101219    101221    101223    101225    101227    101229    101231
    101233    101235    101237    101239    101241    101243    101245    101247
    101249    101251    101253    101255    101257    101259    101261    101263
    101265    101267    101269    101271    101273    101275    101277    101279
    101281    101283    101285    101287    101289    101291    101293    101295
    101297    101299    101301    101303    101305    101307    101309    101311
    101313    101315    101317    101319    101321    101323    101325    101327
    101329    101331    101333    101335    101337    101339    101341    101343
    101345    101347    101349    101351    101353    101355    101357    101359
    101361    101363    101365    101367    101369    101371    101373    101375
    101377    101379    101381    101383    101385    101387    101389    101391
    101393    101395    101397    101399    101401    101403    101405    101407
    101409    101411    101413    101415    101417    101419    101421    101423
    101425    101427    101429    101431    101433    101435    101437    101439
    101441    101443    101445    101447    101449    101451    101453    101455
    101457    101459    101461    101463    101465    101467    101469    101471
    101473    101475    101477    101479    101481    101483    101485    101487
$ ... 134 like lines cut
*SET_NODE_LIST_TITLE                                                            
SPECIMEN_RIGHTEND
         5
    114233    114234    114235    114236    114335    114336    114435    114436
    114535    114536    114586    114636    114735    114736    114786    114836
    114935    114936    114986    115036    115135    115136    115186    115236
    115335    115336    115386    115436    115535    115536    115586    115636
    115735    115736    115786    115836    115935    115936    115986    116036
    116135    116136    116186    116236    116335    116336    116386    116436
    116535    116536    116586    116636    116735    116736    116786    116836
    116935    116936    116986    117036    117135    117136    117186    117236
    117335    117336    117386    117436    117535    117536    117586    117636
    117735    117736    117786    117836    117935    117936    117986    118036
    118135    118136    118186    118236
*SET_NODE_LIST_TITLE                                                            
GRIP_LEFT_UPPER_CONTACT
         7
     25417     25418     25419     25420     25481     25482     25543     25544
     25605     25606     25667     25668     25729     25730     25791     25792
     25853     25854     25915     25916     25977     25978     26039     26040
     26101     26102     26163     26164     26225     26226     26287     26288
     26349     26350     26411     26412     26473     26474     26535     26536
     26597     26598     26659     26660     26721     26722     26783     26784
     26845     26846     26907     26908     26969     26970     27031     27032
     27093     27094     27155     27156     27217     27218     27279     27280
     27341     27342     27403     27404     27465     27466     27527     27528
     27589     27590     27651     27652     27713     27714     27775     27776
     27837     27838     27899     27900     27961     27962     28023     28024
     28085     28086     28147     28148     28209     28210     28271     28272
     28333     28334     28395     28396     28457     28458     28519     28520
     28551     28582     28613     28644     28675     28706     28737     28768
     28799     28830     28861     28892     28923     28954     28985     29016
     29047     29078     29109     29140     29171     29202     29233     29264
     29295     29326     29357     29388     29419     29450     29481     29512
     29543     29574     29605     29636     29667     29698     29729     29760
     29791     29822     29853     29884     29915     29946     29977     30008
$ ... 83 like lines cut
*SET_NODE_LIST_TITLE                                                            
GRIP_LEFT_UPPER_TOP
         8
     25297     25298     25299     25300     25421     25422     25483     25484
     25545     25546     25607     25608     25669     25670     25731     25732
     25793     25794     25855     25856     25917     25918     25979     25980
     26041     26042     26103     26104     26165     26166     26227     26228
     26289     26290     26351     26352     26413     26414     26475     26476
     26537     26538     26599     26600     26661     26662     26723     26724
     26785     26786     26847     26848     26909     26910     26971     26972
     27033     27034     27095     27096     27157     27158     27219     27220
     27281     27282     27343     27344     27405     27406     27467     27468
     27529     27530     27591     27592     27653     27654     27715     27716
     27777     27778     27839     27840     27901     27902     27963     27964
     28025     28026     28087     28088     28149     28150     28211     28212
     28273     28274     28335     28336     28397     28398     28459     28460
     28521     28552     28583     28614     28645     28676     28707     28738
     28769     28800     28831     28862     28893     28924     28955     28986
     29017     29048     29079     29110     29141     29172     29203     29234
     29265     29296     29327     29358     29389     29420     29451     29482
     29513     29544     29575     29606     29637     29668     29699     29730
     29761     29792     29823     29854     29885     29916     29947     29978
$ ... 83 like lines cut
*SET_NODE_LIST_TITLE                                                            
GRIP_LEFT_LOWER_BOTTOM
        10
       121       122       123       124       185       186       247       248
       309       310       371       372       433       434       495       496
       557       558       619       620       681       682       743       744
       805       806       867       868       929       930       991       992
      1053      1054      1115      1116      1177      1178      1239      1240
      1301      1302      1363      1364      1425      1426      1487      1488
      1549      1550      1611      1612      1673      1674      1735      1736
      1797      1798      1859      1860      1921      1922      1983      1984
      2045      2046      2107      2108      2169      2170      2231      2232
      2293      2294      2355      2356      2417      2418      2479      2480
      2541      2542      2603      2604      2665      2666      2727      2728
      2789      2790      2851      2852      2913      2914      2975      2976
      3037      3038      3099      3100      3161      3162      3223      3224
      3255      3286      3317      3348      3379      3410      3441      3472
      3503      3534      3565      3596      3627      3658      3689      3720
      3751      3782      3813      3844      3875      3906      3937      3968
      3999      4030      4061      4092      4123      4154      4185      4216
      4247      4278      4309      4340      4371      4402      4433      4464
      4495      4526      4557      4588      4619      4650      4681      4712
$ ... 83 like lines cut
*SET_NODE_LIST_TITLE                                                            
GRIP_LEFT_LOWER_TOP
        11
         1         2         3         4       125       126       187       188
       249       250       311       312       373       374       435       436
       497       498       559       560       621       622       683       684
       745       746       807       808       869       870       931       932
       993       994      1055      1056      1117      1118      1179      1180
      1241      1242      1303      1304      1365      1366      1427      1428
      1489      1490      1551      1552      1613      1614      1675      1676
      1737      1738      1799      1800      1861      1862      1923      1924
      1985      1986      2047      2048      2109      2110      2171      2172
      2233      2234      2295      2296      2357      2358      2419      2420
      2481      2482      2543      2544      2605      2606      2667      2668
      2729      2730      2791      2792      2853      2854      2915      2916
      2977      2978      3039      3040      3101      3102      3163      3164
      3225      3256      3287      3318      3349      3380      3411      3442
      3473      3504      3535      3566      3597      3628      3659      3690
      3721      3752      3783      3814      3845      3876      3907      3938
      3969      4000      4031      4062      4093      4124      4155      4186
      4217      4248      4279      4310      4341      4372      4403      4434
      4465      4496      4527      4558      4589      4620      4651      4682
$ ... 83 like lines cut
*SET_NODE_LIST_TITLE                                                            
GRIP_RIGHT_UPPER_CONTACT
        13
    100369    100370    100371    100372    100373    100374    100375    100376
    100377    100378    100379    100380    100381    100382    100383    100384
    100385    100386    100387    100388    100389    100390    100391    100392
    100393    100394    100395    100396    100397    100398    100399    100400
    100401    100402    100403    100404    100405    100406    100407    100408
    100409    100410    100411    100412    100413    100414    100415    100416
    100417    100418    100419    100420    100421    100422    100423    100424
    100425    100426    100427    100428    100429    100430    100431    100432
    100433    100434    100435    100436    100437    100438    100439    100440
    100441    100442    100443    100444    100445    100446    100447    100448
    100449    100450    100451    100452    100453    100454    100455    100456
    100457    100458    100459    100460    100461    100462    100463    100464
    100465    100466    100467    100468    100469    100470    100471    100472
    100473    100474    100475    100476    100477    100478    100479    100480
    100481    100482    100483    100484    100485    100486    100487    100488
    100489    100490    100491    100492    100493    100494    100495    100496
    100497    100498    100499    100500    100501    100502    100503    100504
    100505    100506    100507    100508    100509    100510    100511    100512
    100513    100514    100515    100516    100517    100518    100519    100520
$ ... 83 like lines cut
*SET_NODE_LIST_TITLE                                                            
GRIP_RIGHT_UPPER_TOP
        14
     75889     75891     75893     75895     75897     75899     75901     75903
     75905     75907     75909     75911     75913     75915     75917     75919
     75921     75923     75925     75927     75929     75931     75933     75935
     75937     75939     75941     75943     75945     75947     75949     75951
     75953     75955     75957     75959     75961     75963     75965     75967
     75969     75971     75973     75975     75977     75979     75981     75983
     75985     75987     75989     75991     75993     75995     75997     75999
     76001     76003     76005     76007     76009     76011     76013     76015
     76017     76019     76021     76023     76025     76027     76029     76031
     76033     76035     76037     76039     76041     76043     76045     76047
     76049     76051     76053     76055     76057     76059     76061     76063
     76065     76067     76069     76071     76073     76075     76077     76079
     76081     76083     76085     76087     76089     76091     76093     76095
     76097     76099     76101     76103     76105     76107     76109     76111
     76113     76115     76117     76119     76121     76123     76125     76127
     76129     76131     76133     76135     76137     76139     76141     76143
     76145     76147     76149     76151     76153     76155     76157     76159
     76161     76163     76165     76167     76169     76171     76173     76175
     76177     76179     76181     76183     76185     76187     76189     76191
$ ... 83 like lines cut
*SET_NODE_LIST_TITLE                                                            
GRIP_RIGHT_LOWER_BOTTOM
        16
     50713     50714     50715     50716     50777     50778     50839     50840
     50901     50902     50963     50964     51025     51026     51087     51088
     51149     51150     51211     51212     51273     51274     51335     51336
     51397     51398     51459     51460     51521     51522     51583     51584
     51645     51646     51707     51708     51769     51770     51831     51832
     51893     51894     51955     51956     52017     52018     52079     52080
     52141     52142     52203     52204     52265     52266     52327     52328
     52389     52390     52451     52452     52513     52514     52575     52576
     52637     52638     52699     52700     52761     52762     52823     52824
     52885     52886     52947     52948     53009     53010     53071     53072
     53133     53134     53195     53196     53257     53258     53319     53320
     53381     53382     53443     53444     53505     53506     53567     53568
     53629     53630     53691     53692     53753     53754     53815     53816
     53847     53878     53909     53940     53971     54002     54033     54064
     54095     54126     54157     54188     54219     54250     54281     54312
     54343     54374     54405     54436     54467     54498     54529     54560
     54591     54622     54653     54684     54715     54746     54777     54808
     54839     54870     54901     54932     54963     54994     55025     55056
     55087     55118     55149     55180     55211     55242     55273     55304
$ ... 83 like lines cut
*SET_NODE_LIST_TITLE                                                            
GRIP_RIGHT_LOWER_TOP
        17
     50593     50594     50595     50596     50717     50718     50779     50780
     50841     50842     50903     50904     50965     50966     51027     51028
     51089     51090     51151     51152     51213     51214     51275     51276
     51337     51338     51399     51400     51461     51462     51523     51524
     51585     51586     51647     51648     51709     51710     51771     51772
     51833     51834     51895     51896     51957     51958     52019     52020
     52081     52082     52143     52144     52205     52206     52267     52268
     52329     52330     52391     52392     52453     52454     52515     52516
     52577     52578     52639     52640     52701     52702     52763     52764
     52825     52826     52887     52888     52949     52950     53011     53012
     53073     53074     53135     53136     53197     53198     53259     53260
     53321     53322     53383     53384     53445     53446     53507     53508
     53569     53570     53631     53632     53693     53694     53755     53756
     53817     53848     53879     53910     53941     53972     54003     54034
     54065     54096     54127     54158     54189     54220     54251     54282
     54313     54344     54375     54406     54437     54468     54499     54530
     54561     54592     54623     54654     54685     54716     54747     54778
     54809     54840     54871     54902     54933     54964     54995     55026
     55057     55088     55119     55150     55181     55212     55243     55274
$ ... 83 like lines cut
$#
$#$$$$$$$$$$$$$$$$$$$$$$$$$$$$$$$$$$$$$$$$$$$$$$$$$$$
$#		Writing Boundary Conditions		
$#$$$$$$$$$$$$$$$$$$$$$$$$$$$$$$$$$$$$$$$$$$$$$$$$$$$
$#
$BOUNDARY CONDITIONS                                                            
$
$
$==========================================================================
$  LS-DYNA Implicit Eigenvalue (Modal) Analysis Control Cards
$  Generated by MX Digital Twin Modeller
$==========================================================================
$
$--- Switch to implicit, eigenvalue mode ---
$
*CONTROL_IMPLICIT_GENERAL
$#  imflag       dt0    imform      nsbs       igs     cnstn      form    zero_v
         1       0.0         2         1         0         0         0         0
$
$--- Eigenvalue extraction parameters ---
$  NEIG    : Number of eigenvalues to extract
$  LFLAG=2 : Lower bound in frequency (Hz), 0=none
$  RFLAG=2 : Upper bound in frequency (Hz), 0=none
$  EIGMTH  : 2=Lanczos, 3=Inverse Power, 101=BCSLIB-EXT
$
*CONTROL_IMPLICIT_EIGENVALUE
$#    neig    center     lflag    lftend     rflag    rhtend    eigmth    shfscl
        10       0.0         0       0.0         0       0.0         2       0.0
$
$--- Implicit solver selection ---
$  LSOLVR : 2=Multi-frontal Sparse, 4=PARDISO, 6=MUMPS
$  NEGEV  : 0=stop, 1=warn, 2=allow negative eigenvalues
$  AUTOSPC: 1=auto single-point constraints for singular DOF
$
*CONTROL_IMPLICIT_SOLVER
$#  lsolvr    lprint     negev     order      drcm    drcprm   autospc   autotol
         2         0         2         0         4       0.0         1       0.0
$
$--- Implicit auto time stepping (for static preload) ---
$
*CONTROL_IMPLICIT_AUTO
$#   iauto    iteopt    itewin     dtmin     dtmax     dtexp     kfail    kcycle
         1        11         5       0.0       0.0       0.0         0         0
$
$--- Analysis termination ---
$
*CONTROL_TERMINATION
$#  endtim    endcyc     dtmin    endeng    endmas     nosol
       0.0         0       0.0       0.0  1.000E+8         0
$
$==========================================================================
$  OUTPUT CONTROL
$==========================================================================
$
$--- Binary plot output (d3plot + d3eigv) ---
$
*DATABASE_BINARY_D3PLOT
$#      dt      lcdt      beam     npltc    psetid
       0.0         0         0         0         0
$
$--- Binary output extent (what fields to include) ---
$
*DATABASE_EXTENT_BINARY
$#   neiph     neips    maxint    strflg    sigflg    epsflg    rltflg    engflg
         0         0         3         1         1         1         1         1
$#  cmpflg    ieverp    beamip     dcomp      shge     stssz    n3thdt   ialemat
         0         0         0         1         1         0         0         0
$# nintsld   pkp_sen      sclp    unused     msscl     therm    intout    nodout
         0         0    1.0000         0         0         0    STRESS    STRESS
$
$--- General output control ---
$
*CONTROL_OUTPUT
$#   npopt    netefq     nrefup    iaccop     optefq    ipnint    iketefq
         0         0         0         0       0.0         0         0
$
$==========================================================================
$  ADDITIONAL CONTROLS
$==========================================================================
$
$--- Energy computation (hourglass, stonewall, sliding, Rayleigh) ---
$
*CONTROL_ENERGY
$#    hgen      rwen    slnten     rylen
         2         2         2         2
$
$--- Hourglass control ---
$  IHQ: 6=Belytschko-Bindeman assumed strain (shells)
$  QH : Hourglass coefficient (default 0.10)
$
*CONTROL_HOURGLASS
$#     ihq        qh
         6   0.10000
$
$--- Accuracy / objectivity settings ---
$  OSU=1 : Objective stress update (2nd order accurate)
$  INN=4 : Invariant node numbering for shells + solids
$
*CONTROL_ACCURACY
$#     osu       inn    pidosu      iacc
         1         4         0         0
$
$--- Bulk viscosity (standard defaults) ---
$
*CONTROL_BULK_VISCOSITY
$#      q1        q2      type     btype
    1.5000   0.06000        -2         0
$
$--- Shell element control ---
$  WRPANG=20 : Shell warping angle limit
$  ESORT =1  : Auto-sort shell formulations for accuracy
$  ISTUPD=1  : Shell thickness update (large strain)
$  THEORY=2  : BWC (Belytschko-Wong-Chiang) shell theory
$
*CONTROL_SHELL
$#  wrpang    esort     irnxx    istupd    theory       bwc     miter      proj
   20.0000         1        -1         1         2         2         1         0
$
$--- Solid element control ---
$  ESORT=1 : Auto-sort solid formulations
$
*CONTROL_SOLID
$#   esort    fmatrx    niptets      swlocl    ptefct
         1         0         4         0         0
$
$==========================================================================
$  NOTE: Material (*MAT_), mesh (*ELEMENT_, *NODE), boundary conditions
$  (*BOUNDARY_SPC_), and load (*LOAD_) cards are in separate .k includes.
$==========================================================================
$


*END
