*KEYWORD
$ Generated by MX Digital Twin Simulator
$ Unit system: mm-tonne-s
$
*NODE
$#     nid             x               y               z
       1    9.000000E+01   -4.622232E-30    3.000000E+00
       2    8.000000E+01   -4.622232E-30    3.000000E+00
       3    7.000000E+01    0.000000E+00    3.000000E+00
       4    6.000000E+01   -2.311116E-30    3.000000E+00
       5    5.000000E+01    0.000000E+00    3.000000E+00
       6    4.166667E+01    0.000000E+00    3.000000E+00
       7    3.333333E+01    1.301043E-15    3.000000E+00
       8    2.500000E+01    0.000000E+00    3.000000E+00
       9    1.500000E+01    0.000000E+00    3.000000E+00
      10    5.000000E+00    0.000000E+00    3.000000E+00
      11   -5.000000E+00    0.000000E+00    3.000000E+00
      12   -1.500000E+01    0.000000E+00    3.000000E+00
      13   -2.500000E+01    0.000000E+00    3.000000E+00
      14   -3.333333E+01   -1.561251E-15    3.000000E+00
      15   -4.166667E+01    5.204170E-16    3.000000E+00
      16   -5.000000E+01    0.000000E+00    3.000000E+00
      17   -6.000000E+01    0.000000E+00    3.000000E+00
      18   -7.000000E+01    0.000000E+00    3.000000E+00
      19   -8.000000E+01    4.622232E-30    3.000000E+00
      20   -9.000000E+01    0.000000E+00    3.000000E+00
$ ... 7476 like lines cut
$
*SECTION_SOLID
$#   secid    elform
         1         1
*PART
Geom\ASTM E8 Specimen (GL:50mm)
$#    pid     secid       mid
         1         1         1
*ELEMENT_SOLID
$#   eid     pid
$#    n1      n2      n3      n4      n5      n6      n7      n8
       1       1
      20      90      89      87      21      83      84      85       0       0
       2       1
      20      87      88     132      21      85      86      41       0       0
       3       1
      19      91      90      20      22      82      83      21       0       0
       4       1
      19      20     132     131      22      21      41      42       0       0
       5       1
      18      92      91      19      23      81      82      22       0       0
       6       1
      18      19     131     130      23      22      42      43       0       0
       7       1
      17      93      92      18      24      80      81      23       0       0
       8       1
      17      18     130     129      24      23      43      44       0       0
       9       1
      16      94      93      17      25      79      80      24       0       0
      10       1
      16      17     129     128      25      24      44      45       0       0
$ ... 2656 like lines cut
$
$
$=================================================
$  MATERIALS
$=================================================
*MAT_ELASTIC
$ Part: Geom\ASTM E8 Specimen (GL:50mm)  Mat: Structural Steel
$#     mid        ro         e        pr
         1 7.850E-09 2.000E+05    0.3000
$
*MAT_ELASTIC
$ Part: Geom\Upper Grip (Left)  Mat: Structural Steel
$#     mid        ro         e        pr
         2 7.850E-09 2.000E+05    0.3000
$
*MAT_ELASTIC
$ Part: Geom\Lower Grip (Left)  Mat: Structural Steel
$#     mid        ro         e        pr
         3 7.850E-09 2.000E+05    0.3000
$
*MAT_ELASTIC
$ Part: Geom\Upper Grip (Right)  Mat: Structural Steel
$#     mid        ro         e        pr
         4 7.850E-09 2.000E+05    0.3000
$
*MAT_ELASTIC
$ Part: Geom\Lower Grip (Right)  Mat: Structural Steel
$#     mid        ro         e        pr
         5 7.850E-09 2.000E+05    0.3000
$
$
$=================================================
$  NAMED SELECTIONS (NODE SETS)
$=================================================
*SET_NODE_TITLE
Specimen_LeftEnd
$#    nsid
         1
$#      n1        n2        n3        n4        n5        n6        n7        n8
       365
$
*SET_NODE_TITLE
Specimen_RightEnd
$#    nsid
         2
$#      n1        n2        n3        n4        n5        n6        n7        n8
       319
$
*SET_NODE_TITLE
Specimen_Bottom_Contact
$#    nsid
         3
$#      n1        n2        n3        n4        n5        n6        n7        n8
        21        22        23        24        25        26        27        28
        29        30        31        32        33        34        35        36
        37        38        39        40       214       215       216       217
       218       219       220       221       222       223       224       225
       226       227       228       229       230       231       232       233
       234       235       236       237       238       239       240       241
       242       243       244       245       246       247       248       249
       250       251       252       253       254       255       256       257
       258       259       260       261       262       263       264       265
       266       267       268       269       270       271       272       273
       274
$
*SET_NODE_TITLE
Specimen_Top_Contact
$#    nsid
         4
$#      n1        n2        n3        n4        n5        n6        n7        n8
         1         2         3         4         5         6         7         8
         9        10        11        12        13        14        15        16
        17        18        19        20       112       117       120       125
       128       133       135       136       137       138       140       141
       142       144       145       146       148       149       150       152
       153       154       156       157       158       160       161       162
       164       165       166       168       169       170       172       173
       174       176       177       178       180       181       182       184
       185       186       188       189       190       192       193       194
       196       197       198       200       201       202       204       205
       206       208       209       211       212       213
$
*SET_NODE_TITLE
Grip_Left_Upper_Top
$#    nsid
         5
$#      n1        n2        n3        n4        n5        n6        n7        n8
       703       712       783       784       785       786       787       788
       789       790       791       792       793       794       795       796
       797       798       799       800       801       802       803       804
       805       806       807       808       809       810       811       812
       813       814       815       816       817       818       819       820
       821       822       831       842      1819      1821      1823      1825
      1827      1829      1831      1833      1970      1971      1972      1973
      1974      1975      1976      1977      1978      1979      1980      1981
      1982      1983      1984      1985      1986      1987      1988      1989
      1990      1991      1992      1993      1994      1995      1996      1997
      1998      1999      2000      2001      2002      2003      2004      2005
      2006      2007      2008      2009      2010      2011      2012      2013
      2014      2015      2016      2017      2018      2019      2020      2021
      2022      2023      2024      2025      2026      2027      2028      2029
      2030      2031      2032      2033      2034      2035      2036      2037
      2038      2039      2040      2041      2042      2043      2044      2045
      2046      2047      2048      2049      2050      2051      2052      2053
      2054
$
*SET_NODE_TITLE
Grip_Left_Upper_Contact
$#    nsid
         6
$#      n1        n2        n3        n4        n5        n6        n7        n8
       713       722       723       724       725       726       727       728
       729       730       731       732       733       734       735       736
       737       738       739       740       741       742       743       744
       745       746       747       748       749       750       751       752
       753       754       755       756       757       758       759       760
       761       762       771       782      1838      1840      1842      1844
      1846      1848      1850      1852      1854      1855      1856      1857
      1858      1859      1860      1861      1862      1863      1864      1865
      1866      1867      1868      1869      1870      1871      1872      1873
      1874      1875      1876      1877      1878      1879      1880      1881
      1882      1883      1884      1885      1886      1887      1888      1889
      1890      1891      1892      1893      1894      1895      1896      1897
      1898      1899      1900      1901      1902      1903      1904      1905
      1906      1907      1908      1909      1910      1911      1912      1913
      1914      1915      1916      1917      1918      1919      1920      1921
      1922      1923      1924      1925      1926      1927      1928      1929
      1930      1931      1932      1933      1934      1935      1936      1937
      1938
$
*SET_NODE_TITLE
Grip_Left_Lower_Top
$#    nsid
         7
$#      n1        n2        n3        n4        n5        n6        n7        n8
      2474      2483      2554      2555      2556      2557      2558      2559
      2560      2561      2562      2563      2564      2565      2566      2567
      2568      2569      2570      2571      2572      2573      2574      2575
      2576      2577      2578      2579      2580      2581      2582      2583
      2584      2585      2586      2587      2588      2589      2590      2591
      2592      2593      2602      2613      3590      3592      3594      3596
      3598      3600      3602      3604      3741      3742      3743      3744
      3745      3746      3747      3748      3749      3750      3751      3752
      3753      3754      3755      3756      3757      3758      3759      3760
      3761      3762      3763      3764      3765      3766      3767      3768
      3769      3770      3771      3772      3773      3774      3775      3776
      3777      3778      3779      3780      3781      3782      3783      3784
      3785      3786      3787      3788      3789      3790      3791      3792
      3793      3794      3795      3796      3797      3798      3799      3800
      3801      3802      3803      3804      3805      3806      3807      3808
      3809      3810      3811      3812      3813      3814      3815      3816
      3817      3818      3819      3820      3821      3822      3823      3824
      3825
$
*SET_NODE_TITLE
Grip_Left_Lower_Bottom
$#    nsid
         8
$#      n1        n2        n3        n4        n5        n6        n7        n8
      2484      2493      2494      2495      2496      2497      2498      2499
      2500      2501      2502      2503      2504      2505      2506      2507
      2508      2509      2510      2511      2512      2513      2514      2515
      2516      2517      2518      2519      2520      2521      2522      2523
      2524      2525      2526      2527      2528      2529      2530      2531
      2532      2533      2542      2553      3609      3611      3613      3615
      3617      3619      3621      3623      3625      3626      3627      3628
      3629      3630      3631      3632      3633      3634      3635      3636
      3637      3638      3639      3640      3641      3642      3643      3644
      3645      3646      3647      3648      3649      3650      3651      3652
      3653      3654      3655      3656      3657      3658      3659      3660
      3661      3662      3663      3664      3665      3666      3667      3668
      3669      3670      3671      3672      3673      3674      3675      3676
      3677      3678      3679      3680      3681      3682      3683      3684
      3685      3686      3687      3688      3689      3690      3691      3692
      3693      3694      3695      3696      3697      3698      3699      3700
      3701      3702      3703      3704      3705      3706      3707      3708
      3709
$
*SET_NODE_TITLE
Grip_Right_Upper_Top
$#    nsid
         9
$#      n1        n2        n3        n4        n5        n6        n7        n8
      4245      4254      4325      4326      4327      4328      4329      4330
      4331      4332      4333      4334      4335      4336      4337      4338
      4339      4340      4341      4342      4343      4344      4345      4346
      4347      4348      4349      4350      4351      4352      4353      4354
      4355      4356      4357      4358      4359      4360      4361      4362
      4363      4364      4373      4384      5361      5363      5365      5367
      5369      5371      5373      5375      5512      5513      5514      5515
      5516      5517      5518      5519      5520      5521      5522      5523
      5524      5525      5526      5527      5528      5529      5530      5531
      5532      5533      5534      5535      5536      5537      5538      5539
      5540      5541      5542      5543      5544      5545      5546      5547
      5548      5549      5550      5551      5552      5553      5554      5555
      5556      5557      5558      5559      5560      5561      5562      5563
      5564      5565      5566      5567      5568      5569      5570      5571
      5572      5573      5574      5575      5576      5577      5578      5579
      5580      5581      5582      5583      5584      5585      5586      5587
      5588      5589      5590      5591      5592      5593      5594      5595
      5596
$
*SET_NODE_TITLE
Grip_Right_Upper_Contact
$#    nsid
        10
$#      n1        n2        n3        n4        n5        n6        n7        n8
      4255      4264      4265      4266      4267      4268      4269      4270
      4271      4272      4273      4274      4275      4276      4277      4278
      4279      4280      4281      4282      4283      4284      4285      4286
      4287      4288      4289      4290      4291      4292      4293      4294
      4295      4296      4297      4298      4299      4300      4301      4302
      4303      4304      4313      4324      5380      5382      5384      5386
      5388      5390      5392      5394      5396      5397      5398      5399
      5400      5401      5402      5403      5404      5405      5406      5407
      5408      5409      5410      5411      5412      5413      5414      5415
      5416      5417      5418      5419      5420      5421      5422      5423
      5424      5425      5426      5427      5428      5429      5430      5431
      5432      5433      5434      5435      5436      5437      5438      5439
      5440      5441      5442      5443      5444      5445      5446      5447
      5448      5449      5450      5451      5452      5453      5454      5455
      5456      5457      5458      5459      5460      5461      5462      5463
      5464      5465      5466      5467      5468      5469      5470      5471
      5472      5473      5474      5475      5476      5477      5478      5479
      5480
$
*SET_NODE_TITLE
Grip_Right_Lower_Top
$#    nsid
        11
$#      n1        n2        n3        n4        n5        n6        n7        n8
      6016      6025      6096      6097      6098      6099      6100      6101
      6102      6103      6104      6105      6106      6107      6108      6109
      6110      6111      6112      6113      6114      6115      6116      6117
      6118      6119      6120      6121      6122      6123      6124      6125
      6126      6127      6128      6129      6130      6131      6132      6133
      6134      6135      6144      6155      7132      7134      7136      7138
      7140      7142      7144      7146      7283      7284      7285      7286
      7287      7288      7289      7290      7291      7292      7293      7294
      7295      7296      7297      7298      7299      7300      7301      7302
      7303      7304      7305      7306      7307      7308      7309      7310
      7311      7312      7313      7314      7315      7316      7317      7318
      7319      7320      7321      7322      7323      7324      7325      7326
      7327      7328      7329      7330      7331      7332      7333      7334
      7335      7336      7337      7338      7339      7340      7341      7342
      7343      7344      7345      7346      7347      7348      7349      7350
      7351      7352      7353      7354      7355      7356      7357      7358
      7359      7360      7361      7362      7363      7364      7365      7366
      7367
$
*SET_NODE_TITLE
Grip_Right_Lower_Bottom
$#    nsid
        12
$#      n1        n2        n3        n4        n5        n6        n7        n8
      6026      6035      6036      6037      6038      6039      6040      6041
      6042      6043      6044      6045      6046      6047      6048      6049
      6050      6051      6052      6053      6054      6055      6056      6057
      6058      6059      6060      6061      6062      6063      6064      6065
      6066      6067      6068      6069      6070      6071      6072      6073
      6074      6075      6084      6095      7151      7153      7155      7157
      7159      7161      7163      7165      7167      7168      7169      7170
      7171      7172      7173      7174      7175      7176      7177      7178
      7179      7180      7181      7182      7183      7184      7185      7186
      7187      7188      7189      7190      7191      7192      7193      7194
      7195      7196      7197      7198      7199      7200      7201      7202
      7203      7204      7205      7206      7207      7208      7209      7210
      7211      7212      7213      7214      7215      7216      7217      7218
      7219      7220      7221      7222      7223      7224      7225      7226
      7227      7228      7229      7230      7231      7232      7233      7234
      7235      7236      7237      7238      7239      7240      7241      7242
      7243      7244      7245      7246      7247      7248      7249      7250
      7251
$
*SET_NODE_TITLE
Cap_Upper_001
$#    nsid
        13
$#      n1        n2        n3        n4        n5        n6        n7        n8
         1         2         3         4         5         6         7         8
         9        10        11        12        13        14        15        16
        17        18        19        20       112       117       120       125
       128       133       135       136       137       138       140       141
       142       144       145       146       148       149       150       152
       153       154       156       157       158       160       161       162
       164       165       166       168       169       170       172       173
       174       176       177       178       180       181       182       184
       185       186       188       189       190       192       193       194
       196       197       198       200       201       202       204       205
       206       208       209       211       212       213
$
*SET_NODE_TITLE
Cap_Lower_001
$#    nsid
        14
$#      n1        n2        n3        n4        n5        n6        n7        n8
        21        22        23        24        25        26        27        28
        29        30        31        32        33        34        35        36
        37        38        39        40       214       215       216       217
       218       219       220       221       222       223       224       225
       226       227       228       229       230       231       232       233
       234       235       236       237       238       239       240       241
       242       243       244       245       246       247       248       249
       250       251       252       253       254       255       256       257
       258       259       260       261       262       263       264       265
       266       267       268       269       270       271       272       273
       274
$
*SET_SEGMENT_TITLE
Contact Region_SLAVE
       101
$#      n1        n2        n3        n4
       740       739       734       735
       745       744       739       740
       746       745       740       741
       735       734       729       730
       747       746       741       742
       736       735       730       731
       759       758       753       754
       729       728       723       724
       734       733       728       729
       752       751       746       747
       749       748       743       744
       731       730       725       726
       739       738       733       734
       744       743       738       739
       742       741       736       737
       730       729       724       725
       761       760       755       756
       754       753       748       749
       750       749       744       745
       732       731       726       727
$ ... 8 like lines cut
*SET_SEGMENT_TITLE
Contact Region_MASTER
       100
$#      n1        n2        n3        n4
*CONTACT_TIED_SURFACE_TO_SURFACE
$#    ssid      msid     sstyp     mstyp
       101       100         0         0
$#       fs        fd        dc        vc       vdc    penchk        bt
    0.0000    0.0000    0.0000    0.0000    0.0000         0    0.0000
$#    sfsa      sfsb      sast      sbst     sfsat     sfsbt       fsf       vsf
    1.0000    1.0000    0.0000    0.0000    1.0000    1.0000    1.0000    1.0000
$
*SET_SEGMENT_TITLE
Contact Region 2_SLAVE
       103
$#      n1        n2        n3        n4
      2585      2593      2592      2584
      2579      2587      2586      2578
      2568      2576      2575      2567
      2575      2583      2582      2574
      2557      2565      2564      2556
      2560      2568      2567      2559
      2576      2584      2583      2575
      2580      2588      2587      2579
      2561      2569      2568      2560
      2566      2574      2573      2565
      2556      2564      2563      2555
      2577      2585      2584      2576
      2574      2582      2581      2573
      2558      2566      2565      2557
      2583      2591      2590      2582
      2573      2581      2580      2572
      2565      2573      2572      2564
      2569      2577      2576      2568
      2572      2580      2579      2571
      2581      2589      2588      2580
$ ... 8 like lines cut
*SET_SEGMENT_TITLE
Contact Region 2_MASTER
       102
$#      n1        n2        n3        n4
*CONTACT_TIED_SURFACE_TO_SURFACE
$#    ssid      msid     sstyp     mstyp
       103       102         0         0
$#       fs        fd        dc        vc       vdc    penchk        bt
    0.0000    0.0000    0.0000    0.0000    0.0000         0    0.0000
$#    sfsa      sfsb      sast      sbst     sfsat     sfsbt       fsf       vsf
    1.0000    1.0000    0.0000    0.0000    1.0000    1.0000    1.0000    1.0000
$
*SET_SEGMENT_TITLE
Contact Region 3_SLAVE
       105
$#      n1        n2        n3        n4
      4297      4296      4291      4292
      4303      4302      4297      4298
      4289      4288      4283      4284
      4273      4272      4267      4268
      4298      4297      4292      4293
      4283      4282      4277      4278
      4302      4301      4296      4297
      4279      4278      4273      4274
      4271      4270      4265      4266
      4294      4293      4288      4289
      4301      4300      4295      4296
      4274      4273      4268      4269
      4293      4292      4287      4288
      4278      4277      4272      4273
      4286      4285      4280      4281
      4291      4290      4285      4286
      4276      4275      4270      4271
      4299      4298      4293      4294
      4282      4281      4276      4277
      4281      4280      4275      4276
$ ... 8 like lines cut
*SET_SEGMENT_TITLE
Contact Region 3_MASTER
       104
$#      n1        n2        n3        n4
*CONTACT_TIED_SURFACE_TO_SURFACE
$#    ssid      msid     sstyp     mstyp
       105       104         0         0
$#       fs        fd        dc        vc       vdc    penchk        bt
    0.0000    0.0000    0.0000    0.0000    0.0000         0    0.0000
$#    sfsa      sfsb      sast      sbst     sfsat     sfsbt       fsf       vsf
    1.0000    1.0000    0.0000    0.0000    1.0000    1.0000    1.0000    1.0000
$
*SET_SEGMENT_TITLE
Contact Region 4_SLAVE
       107
$#      n1        n2        n3        n4
      6124      6132      6131      6123
      6100      6108      6107      6099
      6099      6107      6106      6098
      6111      6119      6118      6110
      6107      6115      6114      6106
      6125      6133      6132      6124
      6108      6116      6115      6107
      6114      6122      6121      6113
      6106      6114      6113      6105
      6119      6127      6126      6118
      6102      6110      6109      6101
      6116      6124      6123      6115
      6097      6105      6104      6096
      6115      6123      6122      6114
      6103      6111      6110      6102
      6117      6125      6124      6116
      6126      6134      6133      6125
      6101      6109      6108      6100
      6123      6131      6130      6122
      6098      6106      6105      6097
$ ... 8 like lines cut
*SET_SEGMENT_TITLE
Contact Region 4_MASTER
       106
$#      n1        n2        n3        n4
*CONTACT_TIED_SURFACE_TO_SURFACE
$#    ssid      msid     sstyp     mstyp
       107       106         0         0
$#       fs        fd        dc        vc       vdc    penchk        bt
    0.0000    0.0000    0.0000    0.0000    0.0000         0    0.0000
$#    sfsa      sfsb      sast      sbst     sfsat     sfsbt       fsf       vsf
    1.0000    1.0000    0.0000    0.0000    1.0000    1.0000    1.0000    1.0000
$
*END